15

C 22.780434 54.146672 45.365179
F 22.878768 54.583165 46.672383
F 22.446375 52.805867 45.352616
F 21.799203 54.871104 44.716093
S 24.373355 54.385695 44.520460
O 25.368966 53.237750 44.745699
O 25.150603 55.584772 45.083778
N 24.374095 54.658060 42.773780
S 23.246807 53.505802 42.053388
O 24.499940 53.306699 41.183721
O 22.770008 54.866430 41.516197
C 22.511203 53.101717 40.378193
F 23.014430 53.848260 39.309506
F 21.136240 53.280136 40.422653
F 22.738580 51.762762 40.103706
